@<TRIPOS>MOLECULE
.\dataset\4i54\ring\4i54_protein_raw_ring_4.xyz
 12 12 0 0 0
SMALL
GASTEIGER

@<TRIPOS>ATOM
      1 C          -3.7780  -14.9680    0.2140 C.ar    1  UNL11      -0.0618
      2 C          -2.0160  -15.3760    1.7660 C.ar    1  UNL11      -0.0618
      3 C          -3.2170  -13.7500   -0.1130 C.ar    1  UNL11      -0.0618
      4 C          -1.4540  -14.1420    1.4480 C.ar    1  UNL11      -0.0618
      5 C          -3.1810  -15.7950    1.1560 C.ar    1  UNL11      -0.0618
      6 C          -2.0530  -13.3330    0.4980 C.ar    1  UNL11      -0.0618
      7 H          -4.7000  -15.2840   -0.2730 H       1  UNL11       0.0618
      8 H          -1.5320  -16.0160    2.5030 H       1  UNL11       0.0618
      9 H          -3.6960  -13.1150   -0.8580 H       1  UNL11       0.0618
     10 H          -0.5420  -13.8130    1.9470 H       1  UNL11       0.0618
     11 H          -1.6080  -12.3730    0.2350 H       1  UNL11       0.0618
     12 H          -3.6009  -16.7067    1.3958 H       1  UNL11       0.0618
@<TRIPOS>BOND
     1     9     3    1
     2     7     1    1
     3     3     1   ar
     4     3     6   ar
     5     1     5   ar
     6    11     6    1
     7     6     4   ar
     8     5     2   ar
     9     4     2   ar
    10     4    10    1
    11     2     8    1
    12     5    12    1

