@<TRIPOS>MOLECULE
.\dataset\4i54\ring\4i54_protein_raw_ring_3.xyz
 12 12 0 0 0
SMALL
GASTEIGER

@<TRIPOS>ATOM
      1 C          -5.2290  -20.8380   -0.7850 C.ar    1  UNL1       -0.0506
      2 C          -5.1420  -21.9080   -2.9220 C.ar    1  UNL1       -0.0506
      3 C          -4.2600  -19.9290   -1.1810 C.ar    1  UNL1       -0.0196
      4 C          -4.1530  -20.9970   -3.3320 C.ar    1  UNL1       -0.0196
      5 C          -5.6980  -21.8330   -1.6440 C.ar    1  UNL1       -0.0177
      6 C          -3.7230  -20.0110   -2.4460 C.ar    1  UNL1        0.1169
      7 H          -5.6350  -20.7740    0.2240 H       1  UNL1        0.0625
      8 H          -5.4790  -22.6830   -3.6110 H       1  UNL1        0.0625
      9 H          -3.9250  -19.1520   -0.4940 H       1  UNL1        0.0654
     10 H          -3.7270  -21.0610   -4.3330 H       1  UNL1        0.0654
     11 H          -1.9290  -19.5600   -3.0360 H       1  UNL1        0.2921
     12 O          -2.7680  -19.0900   -2.7990 O.3     1  UNL1       -0.5068
@<TRIPOS>BOND
     1    10     4    1
     2     8     2    1
     3     4     2   ar
     4     4     6   ar
     5    11    12    1
     6     2     5   ar
     7    12     6    1
     8     6     3   ar
     9     5     1   ar
    10     3     1   ar
    11     3     9    1
    12     1     7    1

