@<TRIPOS>MOLECULE
.\dataset\4i54\ring\4i54_protein_raw_ring_1.xyz
 15 16 0 0 0
SMALL
GASTEIGER

@<TRIPOS>ATOM
      1 C          -4.3240   -5.8110   -1.0750 C.ar    1  UNL1        0.0105
      2 C          -3.4510   -7.8590   -1.2740 C.ar    1  UNL1        0.0074
      3 C          -4.8160   -7.9810   -0.9290 C.ar    1  UNL1        0.0471
      4 C          -2.6930   -9.0190   -1.4550 C.ar    1  UNL1       -0.0520
      5 C          -3.1590   -6.4710   -1.3660 C.ar    1  UNL1        0.0091
      6 C          -4.6650  -10.3330   -0.9430 C.ar    1  UNL1       -0.0598
      7 C          -5.4320   -9.2160   -0.7530 C.ar    1  UNL1       -0.0378
      8 C          -3.3100  -10.2450   -1.2880 C.ar    1  UNL1       -0.0611
      9 H          -4.4370   -4.7270   -1.0480 H       1  UNL1        0.0813
     10 H          -6.3160   -6.4760   -0.5890 H       1  UNL1        0.1654
     11 H          -1.6380   -8.9590   -1.7220 H       1  UNL1        0.0624
     12 H          -5.1200  -11.3160   -0.8230 H       1  UNL1        0.0618
     13 H          -6.4830   -9.2910   -0.4750 H       1  UNL1        0.0638
     14 H          -2.7320  -11.1590   -1.4270 H       1  UNL1        0.0618
     15 N          -5.3310   -6.7140   -0.8220 N.ar    1  UNL1       -0.3600
@<TRIPOS>BOND
     1    11     4    1
     2     4     8   ar
     3     4     2   ar
     4    14     8    1
     5     5     2   ar
     6     5     1   ar
     7     8     6   ar
     8     2     3   ar
     9     1     9    1
    10     1    15   ar
    11     6    12    1
    12     6     7   ar
    13     3    15   ar
    14     3     7   ar
    15    15    10    1
    16     7    13    1

