@<TRIPOS>MOLECULE
.\dataset\4i54\ring\4i54_protein_raw_ring_2.xyz
 16 17 0 0 0
SMALL
GASTEIGER

@<TRIPOS>ATOM
      1 C          -3.7710  -10.8270   -5.0920 C.ar    1  UNL11       0.0027
      2 C          -4.2020   -9.1830   -6.5470 C.ar    1  UNL11      -0.0004
      3 C          -4.0290   -8.6190   -5.2600 C.ar    1  UNL11       0.0465
      4 C          -4.4790   -8.3380   -7.6220 C.ar    1  UNL11      -0.0526
      5 C          -4.0320  -10.5880   -6.4180 C.ar    1  UNL11      -0.0367
      6 C          -4.4150   -6.4460   -6.0940 C.ar    1  UNL11      -0.0598
      7 C          -4.1380   -7.2460   -5.0240 C.ar    1  UNL11      -0.0378
      8 C          -4.5840   -6.9790   -7.3870 C.ar    1  UNL11      -0.0611
      9 H          -3.5920  -11.8110   -4.6590 H       1  UNL11       0.0807
     10 H          -3.5970   -9.5480   -3.3670 H       1  UNL11       0.1653
     11 H          -4.6100   -8.7410   -8.6260 H       1  UNL11       0.0624
     12 H          -4.5080   -5.3700   -5.9450 H       1  UNL11       0.0618
     13 H          -4.0070   -6.8310   -4.0250 H       1  UNL11       0.0638
     14 H          -4.8020   -6.3080   -8.2180 H       1  UNL11       0.0618
     15 N          -3.7680   -9.6460   -4.3880 N.ar    1  UNL11      -0.3606
     16 H          -4.0928  -11.2898   -7.1722 H       1  UNL11       0.0638
@<TRIPOS>BOND
     1    11     4    1
     2    14     8    1
     3     4     8   ar
     4     4     2   ar
     5     8     6   ar
     6     2     5   ar
     7     2     3   ar
     8     5     1   ar
     9     6    12    1
    10     6     7   ar
    11     3     7   ar
    12     3    15   ar
    13     1     9    1
    14     1    15   ar
    15     7    13    1
    16    15    10    1
    17     5    16    1

