@<TRIPOS>MOLECULE
.\dataset\4i54\ring\4i54_ligand_raw_ring_4.xyz
 12 12 0 0 0
SMALL
GASTEIGER

@<TRIPOS>ATOM
      1 C          -4.5280  -14.9470   -6.0090 C.ar    1  UNL11      -0.0618
      2 C          -3.7470  -14.8680   -4.9320 C.ar    1  UNL11      -0.0618
      3 H          -2.6731  -14.9714   -5.0372 H       1  UNL11       0.0618
      4 C          -4.2970  -14.6550   -3.6810 C.ar    1  UNL11      -0.0618
      5 H          -3.6703  -14.5937   -2.7986 H       1  UNL11       0.0618
      6 C          -5.6980  -14.5200   -3.5880 C.ar    1  UNL11      -0.0618
      7 C          -6.5380  -14.5910   -4.7640 C.ar    1  UNL11      -0.0618
      8 C          -5.8440  -14.8140   -5.9380 C.ar    1  UNL11      -0.0618
      9 H          -6.4122  -14.8845   -6.8585 H       1  UNL11       0.0618
     10 H          -4.0929  -15.1175   -6.9291 H       1  UNL11       0.0618
     11 H          -6.1319  -14.3678   -2.6641 H       1  UNL11       0.0618
     12 H          -7.5639  -14.4846   -4.7291 H       1  UNL11       0.0618
@<TRIPOS>BOND
     1     9     8    1
     2     1     8   ar
     3     1     2   ar
     4     8     7   ar
     5     3     2    1
     6     2     4   ar
     7     7     6   ar
     8     4     6   ar
     9     4     5    1
    10     1    10    1
    11     6    11    1
    12     7    12    1

