@<TRIPOS>MOLECULE
.\dataset\4mme\ring\4mme_protein_raw_ring_6.xyz
 13 13 0 0 0
SMALL
GASTEIGER

@<TRIPOS>ATOM
      1 C          98.5280   27.7260   30.3270 C.ar    1  UNL11      -0.0583
      2 C          96.3010   26.9040   30.1320 C.ar    1  UNL11      -0.0583
      3 C          98.5110   27.4520   31.6890 C.ar    1  UNL11      -0.0202
      4 C          96.2700   26.6320   31.4880 C.ar    1  UNL11      -0.0202
      5 C          97.4310   27.4420   29.5250 C.ar    1  UNL11      -0.0615
      6 C          97.3710   26.9030   32.2640 C.ar    1  UNL11       0.1169
      7 H          99.4170   28.1710   29.8810 H       1  UNL11       0.0619
      8 H          95.4200   26.6920   29.5260 H       1  UNL11       0.0619
      9 H          99.3860   27.6660   32.3030 H       1  UNL11       0.0654
     10 H          95.3750   26.2040   31.9390 H       1  UNL11       0.0654
     11 H          98.1830   26.8720   34.0360 H       1  UNL11       0.2921
     12 O          97.3210   26.6240   33.6170 O.3     1  UNL11      -0.5068
     13 H          97.4532   27.6245   28.5095 H       1  UNL11       0.0618
@<TRIPOS>BOND
     1     5     2   ar
     2     5     1   ar
     3     8     2    1
     4     7     1    1
     5     2     4   ar
     6     1     3   ar
     7     4    10    1
     8     4     6   ar
     9     3     6   ar
    10     3     9    1
    11     6    12    1
    12    12    11    1
    13     5    13    1

