@<TRIPOS>MOLECULE
.\dataset\4mme\ring\4mme_ligand_raw_ring_6.xyz
 12 12 0 0 0
SMALL
GASTEIGER

@<TRIPOS>ATOM
      1 C         102.6350   23.4890   35.9670 C.ar    1  UNL11      -0.0618
      2 C         101.7450   24.4010   35.4000 C.ar    1  UNL11      -0.0618
      3 H         101.6011   24.4065   34.3256 H       1  UNL11       0.0618
      4 C         101.0290   25.3160   36.1990 C.ar    1  UNL11      -0.0618
      5 H         100.3393   26.0142   35.7387 H       1  UNL11       0.0618
      6 C         101.2090   25.3220   37.5830 C.ar    1  UNL11      -0.0618
      7 H         100.6518   26.0183   38.1992 H       1  UNL11       0.0618
      8 C         102.1230   24.4150   38.1840 C.ar    1  UNL11      -0.0618
      9 H         102.2872   24.4155   39.2555 H       1  UNL11       0.0618
     10 C         102.8010   23.5260   37.3550 C.ar    1  UNL11      -0.0618
     11 H         103.1517   22.8122   35.3840 H       1  UNL11       0.0618
     12 H         103.4602   22.8598   37.7870 H       1  UNL11       0.0618
@<TRIPOS>BOND
     1     3     2    1
     2     2     1   ar
     3     2     4   ar
     4     5     4    1
     5     1    10   ar
     6     4     6   ar
     7    10     8   ar
     8     6     8   ar
     9     6     7    1
    10     8     9    1
    11     1    11    1
    12    10    12    1

