@<TRIPOS>MOLECULE
.\dataset\4mme\ring\4mme_ligand_raw_ring_2.xyz
 10 10 0 0 0
SMALL
GASTEIGER

@<TRIPOS>ATOM
      1 C         101.2710   20.4260   32.1850 C.ar    1  UNL1       -0.0178
      2 C         102.4030   21.1290   31.8960 C.ar    1  UNL1       -0.0535
      3 H         102.7585   21.1993   30.8744 H       1  UNL1        0.0624
      4 C         103.1010   21.7590   32.9330 C.ar    1  UNL1       -0.0535
      5 H         103.9920   22.3275   32.6921 H       1  UNL1        0.0624
      6 C         102.6950   21.6830   34.2580 C.ar    1  UNL1       -0.0178
      7 C         101.5270   20.9880   34.5560 C.ar    1  UNL1       -0.0535
      8 H         101.1648   20.9361   35.5764 H       1  UNL1        0.0624
      9 C         100.8190   20.3510   33.5130 C.ar    1  UNL1       -0.0535
     10 H          99.9153   19.7971   33.7401 H       1  UNL1        0.0624
@<TRIPOS>BOND
     1     3     2    1
     2     2     1   ar
     3     2     4   ar
     4     1     9   ar
     5     5     4    1
     6     4     6   ar
     7     9    10    1
     8     9     7   ar
     9     6     7   ar
    10     7     8    1

