@<TRIPOS>MOLECULE
.\dataset\4mme\ring\4mme_protein_raw_ring_1.xyz
 12 12 0 0 0
SMALL
GASTEIGER

@<TRIPOS>ATOM
      1 C         104.7830   17.1410   35.9800 C.ar    1  UNL1       -0.0506
      2 C         105.2040   16.6400   38.2730 C.ar    1  UNL1       -0.0506
      3 C         103.5590   17.6970   36.3170 C.ar    1  UNL1       -0.0196
      4 C         103.9850   17.1880   38.6200 C.ar    1  UNL1       -0.0196
      5 C         105.6200   16.6000   36.9510 C.ar    1  UNL1       -0.0177
      6 C         103.1690   17.7160   37.6370 C.ar    1  UNL1        0.1169
      7 H         105.0950   17.1270   34.9360 H       1  UNL1        0.0625
      8 H         105.8500   16.2320   39.0510 H       1  UNL1        0.0625
      9 H         102.9120   18.1150   35.5450 H       1  UNL1        0.0654
     10 H         103.6680   17.2040   39.6630 H       1  UNL1        0.0654
     11 H         101.4000   17.5730   38.4220 H       1  UNL1        0.2921
     12 O         101.9600   18.2630   37.9840 O.3     1  UNL1       -0.5068
@<TRIPOS>BOND
     1     7     1    1
     2     9     3    1
     3     1     3   ar
     4     1     5   ar
     5     3     6   ar
     6     5     2   ar
     7     6    12    1
     8     6     4   ar
     9    12    11    1
    10     2     4   ar
    11     2     8    1
    12     4    10    1

