@<TRIPOS>MOLECULE
.\dataset\4mme\ring\4mme_protein_raw_ring_4.xyz
 11 11 0 0 0
SMALL
GASTEIGER

@<TRIPOS>ATOM
      1 C          98.7570   20.6630   37.3120 C.ar    1  UNL1       -0.0540
      2 C          99.6150   19.9690   39.4220 C.ar    1  UNL1       -0.0540
      3 C          99.1020   21.9760   37.6390 C.ar    1  UNL1       -0.0612
      4 C          99.9480   21.2420   39.7540 C.ar    1  UNL1       -0.0612
      5 C          99.0520   19.6410   38.2070 C.ar    1  UNL1       -0.0179
      6 C          99.7030   22.2520   38.8720 C.ar    1  UNL1       -0.0617
      7 H          98.2620   20.4420   36.3660 H       1  UNL1        0.0624
      8 H          99.8000   19.1740   40.1450 H       1  UNL1        0.0624
      9 H          98.9030   22.7840   36.9350 H       1  UNL1        0.0618
     10 H         100.4080   21.4550   40.7190 H       1  UNL1        0.0618
     11 H          99.9760   23.2760   39.1280 H       1  UNL1        0.0618
@<TRIPOS>BOND
     1     7     1    1
     2     9     3    1
     3     1     3   ar
     4     1     5   ar
     5     3     6   ar
     6     5     2   ar
     7     6    11    1
     8     6     4   ar
     9     2     4   ar
    10     2     8    1
    11     4    10    1

