@<TRIPOS>MOLECULE
.\dataset\4mme\ring\4mme_protein_raw_ring_7.xyz
 12 12 0 0 0
SMALL
GASTEIGER

@<TRIPOS>ATOM
      1 C         102.8160   25.3010   31.6110 C.ar    1  UNL1       -0.0506
      2 C         103.8560   23.6540   30.2350 C.ar    1  UNL1       -0.0506
      3 C         103.9640   25.3970   32.3720 C.ar    1  UNL1       -0.0196
      4 C         105.0130   23.7430   30.9930 C.ar    1  UNL1       -0.0196
      5 C         102.7400   24.4290   30.5320 C.ar    1  UNL1       -0.0177
      6 C         105.0640   24.6200   32.0580 C.ar    1  UNL1        0.1169
      7 H         101.9540   25.9200   31.8610 H       1  UNL1        0.0625
      8 H         103.8200   22.9650   29.3910 H       1  UNL1        0.0625
      9 H         104.0030   26.0830   33.2180 H       1  UNL1        0.0654
     10 H         105.8770   23.1250   30.7500 H       1  UNL1        0.0654
     11 H         106.4110   23.8350   33.2270 H       1  UNL1        0.2921
     12 O         106.2110   24.7160   32.8210 O.3     1  UNL1       -0.5068
@<TRIPOS>BOND
     1     8     2    1
     2     2     5   ar
     3     2     4   ar
     4     5     1   ar
     5    10     4    1
     6     4     6   ar
     7     1     7    1
     8     1     3   ar
     9     6     3   ar
    10     6    12    1
    11     3     9    1
    12    12    11    1

