@<TRIPOS>MOLECULE
.\dataset\4mme\ring\4mme_protein_raw_ring_8.xyz
 11 11 0 0 0
SMALL
GASTEIGER

@<TRIPOS>ATOM
      1 C          99.7140   25.8240   41.6840 C.ar    1  UNL1       -0.0540
      2 C         100.3010   27.5310   43.2280 C.ar    1  UNL1       -0.0540
      3 C          98.3940   26.2100   41.7630 C.ar    1  UNL1       -0.0612
      4 C          98.9720   27.9270   43.2990 C.ar    1  UNL1       -0.0612
      5 C         100.6800   26.4590   42.4350 C.ar    1  UNL1       -0.0179
      6 C          98.0200   27.2650   42.5680 C.ar    1  UNL1       -0.0617
      7 H          99.9980   25.0070   41.0200 H       1  UNL1        0.0624
      8 H         101.0550   28.0690   43.8020 H       1  UNL1        0.0624
      9 H          97.6390   25.6770   41.1850 H       1  UNL1        0.0618
     10 H          98.6860   28.7640   43.9360 H       1  UNL1        0.0618
     11 H          96.9750   27.5700   42.6230 H       1  UNL1        0.0618
@<TRIPOS>BOND
     1     7     1    1
     2     9     3    1
     3     1     3   ar
     4     1     5   ar
     5     3     6   ar
     6     5     2   ar
     7     6    11    1
     8     6     4   ar
     9     2     4   ar
    10     2     8    1
    11     4    10    1

