@<TRIPOS>MOLECULE
E:\projects\surrogate\test\ref\ref_Tyr.xyz
 13 13 0 0 0
SMALL
GASTEIGER

@<TRIPOS>ATOM
      1 C           3.8134   -1.2148    4.7496 C.ar    1  UNL1       -0.0202
      2 C           4.5241   -0.0148    4.7491 C.ar    1  UNL1       -0.0583
      3 C           3.8387    1.2007    4.7487 C.ar    1  UNL1       -0.0615
      4 C           2.4428    1.2158    4.7491 C.ar    1  UNL1       -0.0583
      5 C           1.7295    0.0159    4.7497 C.ar    1  UNL1       -0.0202
      6 C           2.4232   -1.1911    4.7496 C.ar    1  UNL1        0.1169
      7 H           4.3407   -2.1643    4.7499 H       1  UNL1        0.0654
      8 H           5.6106   -0.0284    4.7489 H       1  UNL1        0.0619
      9 H           1.9117    2.1641    4.7492 H       1  UNL1        0.0619
     10 H           0.6448    0.0426    4.7501 H       1  UNL1        0.0654
     11 O           1.7674   -2.3870    4.7491 O.3     1  UNL1       -0.5068
     12 H           0.8120   -2.2138    4.7448 H       1  UNL1        0.2921
     13 H           4.3927    2.1359    4.7481 H       1  UNL1        0.0618
@<TRIPOS>BOND
     1    12    11    1
     2    13     3    1
     3     3     2   ar
     4     3     4   ar
     5     8     2    1
     6     2     1   ar
     7     4     9    1
     8     4     5   ar
     9    11     6    1
    10     1     6   ar
    11     1     7    1
    12     6     5   ar
    13     5    10    1

