@<TRIPOS>MOLECULE
.\dataset\3d91\ring\3d91_ligand_raw_ring_1.xyz
 12 12 0 0 0
SMALL
GASTEIGER

@<TRIPOS>ATOM
      1 C           0.4240    6.2650   -5.0360 C.ar    1  UNL11      -0.0618
      2 C           1.6100    6.6460   -5.6390 C.ar    1  UNL11      -0.0618
      3 H           1.6494    6.7632   -6.7159 H       1  UNL11       0.0618
      4 C           2.7450    6.8790   -4.8850 C.ar    1  UNL11      -0.0618
      5 H           3.6732    7.1690   -5.3640 H       1  UNL11       0.0618
      6 C           2.6800    6.7380   -3.5220 C.ar    1  UNL11      -0.0618
      7 H           3.5575    6.9333   -2.9162 H       1  UNL11       0.0618
      8 C           1.5000    6.3480   -2.9190 C.ar    1  UNL11      -0.0618
      9 H           1.4671    6.2276   -1.8422 H       1  UNL11       0.0618
     10 C           0.3630    6.1090   -3.6620 C.ar    1  UNL11      -0.0618
     11 H          -0.5592    5.8053   -3.1800 H       1  UNL11       0.0618
     12 H          -0.4160    6.0970   -5.6115 H       1  UNL11       0.0618
@<TRIPOS>BOND
     1     3     2    1
     2     2     1   ar
     3     2     4   ar
     4     5     4    1
     5     1    10   ar
     6     4     6   ar
     7    10    11    1
     8    10     8   ar
     9     6     8   ar
    10     6     7    1
    11     8     9    1
    12     1    12    1

