@<TRIPOS>MOLECULE
.\dataset\3d91\ring\3d91_protein_raw_ring_2.xyz
 11 11 0 0 0
SMALL
GASTEIGER

@<TRIPOS>ATOM
      1 C           1.8740   11.6070   -2.7220 C.ar    1  UNL1       -0.0540
      2 C           0.7280   11.3880   -0.6350 C.ar    1  UNL1       -0.0540
      3 C           1.5000   10.2470   -3.0450 C.ar    1  UNL1       -0.0612
      4 C           0.3700   10.0350   -0.9550 C.ar    1  UNL1       -0.0612
      5 C           1.5090   12.1670   -1.5040 C.ar    1  UNL1       -0.0179
      6 C           0.7600    9.4800   -2.1470 C.ar    1  UNL1       -0.0617
      7 H           2.4460   12.1960   -3.4390 H       1  UNL1        0.0624
      8 H           0.3850   11.8210    0.3050 H       1  UNL1        0.0624
      9 H           1.8000    9.8180   -4.0010 H       1  UNL1        0.0618
     10 H          -0.2140    9.4460   -0.2480 H       1  UNL1        0.0618
     11 H           0.4940    8.4510   -2.3890 H       1  UNL1        0.0618
@<TRIPOS>BOND
     1     9     3    1
     2     7     1    1
     3     3     1   ar
     4     3     6   ar
     5     1     5   ar
     6    11     6    1
     7     6     4   ar
     8     5     2   ar
     9     4     2   ar
    10     4    10    1
    11     2     8    1

