@<TRIPOS>MOLECULE
.\dataset\3d91\ring\3d91_protein_raw_ring_1.xyz
 12 12 0 0 0
SMALL
GASTEIGER

@<TRIPOS>ATOM
      1 C           0.8870    6.6020    1.9970 C.ar    1  UNL11      -0.0618
      2 C           0.7540    4.3430    2.7400 C.ar    1  UNL11      -0.0618
      3 C          -0.4440    6.5990    1.6810 C.ar    1  UNL11      -0.0618
      4 C          -0.5820    4.3270    2.4090 C.ar    1  UNL11      -0.0618
      5 C           1.5040    5.4910    2.5370 C.ar    1  UNL11      -0.0618
      6 C          -1.1920    5.5130    1.8740 C.ar    1  UNL11      -0.0618
      7 H           1.4740    7.5030    1.8180 H       1  UNL11       0.0618
      8 H           1.2220    3.4530    3.1620 H       1  UNL11       0.0618
      9 H          -0.8990    7.4980    1.2650 H       1  UNL11       0.0618
     10 H          -1.1730    3.4220    2.5520 H       1  UNL11       0.0618
     11 H          -2.2540    5.5240    1.6290 H       1  UNL11       0.0618
     12 H           2.5055    5.5149    2.7850 H       1  UNL11       0.0618
@<TRIPOS>BOND
     1     9     3    1
     2    11     6    1
     3     3     6   ar
     4     3     1   ar
     5     7     1    1
     6     6     4   ar
     7     1     5   ar
     8     4    10    1
     9     4     2   ar
    10     5     2   ar
    11     2     8    1
    12     5    12    1

