@<TRIPOS>MOLECULE
.\dataset\1a4k\ring\1a4k_ligand_raw_ring_1.xyz
 12 12 0 0 0
SMALL
GASTEIGER

@<TRIPOS>ATOM
      1 C          17.8010    6.4300    0.1030 C.ar    1  UNL11      -0.0618
      2 C          17.4160    7.6830    0.6260 C.ar    1  UNL11      -0.0618
      3 H          16.3936    8.0231    0.5075 H       1  UNL11       0.0618
      4 C          18.3390    8.4880    1.2940 C.ar    1  UNL11      -0.0618
      5 H          18.0163    9.4465    1.6841 H       1  UNL11       0.0618
      6 C          19.6990    8.0850    1.4790 C.ar    1  UNL11      -0.0618
      7 C          20.0900    6.8050    0.9420 C.ar    1  UNL11      -0.0618
      8 H          21.1121    6.4631    1.0586 H       1  UNL11       0.0618
      9 C          19.1510    5.9910    0.2640 C.ar    1  UNL11      -0.0618
     10 H          19.4575    5.0307   -0.1346 H       1  UNL11       0.0618
     11 H          17.1150    5.8374   -0.3903 H       1  UNL11       0.0618
     12 H          20.3737    8.6865    1.9771 H       1  UNL11       0.0618
@<TRIPOS>BOND
     1    10     9    1
     2     1     9   ar
     3     1     2   ar
     4     9     7   ar
     5     3     2    1
     6     2     4   ar
     7     7     8    1
     8     7     6   ar
     9     4     6   ar
    10     4     5    1
    11     1    11    1
    12     6    12    1

