@<TRIPOS>MOLECULE
.\dataset\1a4k\ring\1a4k_protein_raw_ring_1.xyz
 15 16 0 0 0
SMALL
GASTEIGER

@<TRIPOS>ATOM
      1 C          23.6840    9.2470    7.0520 C.ar    1  UNL1        0.0105
      2 C          22.1290    7.8670    6.2210 C.ar    1  UNL1        0.0074
      3 C          23.3170    7.7180    5.4700 C.ar    1  UNL1        0.0471
      4 C          21.0090    7.0970    5.8780 C.ar    1  UNL1       -0.0520
      5 C          22.3850    8.8470    7.2260 C.ar    1  UNL1        0.0091
      6 C          22.3050    6.0880    4.0830 C.ar    1  UNL1       -0.0598
      7 C          23.4160    6.8280    4.3940 C.ar    1  UNL1       -0.0378
      8 C          21.1090    6.2130    4.8100 C.ar    1  UNL1       -0.0611
      9 H          24.1940    9.9930    7.6620 H       1  UNL1        0.0813
     10 H          25.2070    8.6890    5.6650 H       1  UNL1        0.1654
     11 H          20.0780    7.1900    6.4380 H       1  UNL1        0.0624
     12 H          22.3500    5.3850    3.2510 H       1  UNL1        0.0618
     13 H          24.3410    6.7270    3.8260 H       1  UNL1        0.0638
     14 H          20.2460    5.6070    4.5320 H       1  UNL1        0.0618
     15 N          24.2500    8.5730    5.9990 N.ar    1  UNL1       -0.3600
@<TRIPOS>BOND
     1    12     6    1
     2    13     7    1
     3     6     7   ar
     4     6     8   ar
     5     7     3   ar
     6    14     8    1
     7     8     4   ar
     8     3    15   ar
     9     3     2   ar
    10    10    15    1
    11     4     2   ar
    12     4    11    1
    13    15     1   ar
    14     2     5   ar
    15     1     5   ar
    16     1     9    1

